.print tran v(vin) v(vout)
.tran 0 0.4 .001 >mycircuit.out
