.model 1N4004 D
Vcc (Vin 0) pulse(iv=0, pv=5, period=0.02, width=0.01)
