.print tran v(vin) v(vout)
.tran 0 1.4 .001 >voltagedoubler.out
