.print tran v(vin) i(C2) v(v2) v(vout) i(R3) i(R2) pd(R3) pd(R2) 
.store tran pd(R2)
*.measure integral(probe="pd(R2)")
.tran 0 0.000120 .0000005 >voltagedoubler.dat
